# b3lyp/sto-3g geom=connectivity
scf(tight,maxcycle=9999)
opt(calcfc,maxcycles=9999)
EmpiricalDispersion(GD3BJ)

Title Card Required

0 1
 Mo                -3.69747877    0.85434172    0.00000000
 Mo                -1.85186162    0.89378911    1.75132970
 S                 -1.96929730    0.88004581    0.01451288
 S                 -3.58825222    0.86677379    1.71825865
 S                 -1.85186162    3.19378911    1.75132970
 S                 -3.69747877    3.15434172    0.00000000
 S                 -3.69747877    0.85434172   -2.30000000
 S                 -5.99747877    0.85434172    0.00000000
 S                  0.44813838    0.89378911    1.75132970
 S                 -1.85186162    0.89378911    4.05132970
 C                 -6.33453475    0.83489923   -2.61354850
 C                  0.71043821    1.60094508    4.33064656
 N                 -7.30040584    1.16003089   -3.57278246
 N                  1.83218378    1.28261709    5.32773269
 C                 -6.72193566    1.15235890   -5.68417968
 H                 -6.36528123    0.14354890   -5.68417968
 H                 -6.36526282    1.65675709   -6.55783118
 H                 -7.79193566    1.15237208   -5.68417968
 C                 -9.12694522    1.14560561   -3.60393523
 H                 -8.77029080    0.13679561   -3.60393523
 H                 -8.77027238    1.65000380   -4.47758673
 H                -10.19694522    1.14561879   -3.60393523
 C                  3.84914410    1.29553583    4.84043571
 H                  4.20579853    0.28672583    4.84043571
 H                  4.20581694    1.79993402    5.71408721
 H                  4.20581694    1.79993402    3.96678421
 C                  1.26092098    1.28713667    6.88308194
 H                  1.61757540    0.27832667    6.88308194
 H                  1.61759382    1.79153486    7.75673344
 H                  0.19092098    1.28714985    6.88308194

 1 3 1.0 4 1.0 6 2.0 7 0.5 8 0.5
 2 3 1.0 4 1.0 5 2.0 9 0.5 10 0.5
 3
 4
 5
 6
 7 11 1.5
 8 11 1.5
 9 12 1.5
 10 12 2.0
 11 13 1.0
 12 14 1.0
 13 15 1.0 19 1.0
 14 23 1.0 27 1.0
 15 16 1.0 17 1.0 18 1.0
 16
 17
 18
 19 20 1.0 21 1.0 22 1.0
 20
 21
 22
 23 24 1.0 25 1.0 26 1.0
 24
 25
 26
 27 28 1.0 29 1.0 30 1.0
 28
 29
 30

